/*--------------------------------*- C++ -*----------------------------------*\
| =========                 |                                                 |
| \\      /  F ield         | OpenFOAM: The Open Source CFD Toolbox           |
|  \\    /   O peration     | Version:  3.0.x                                 |
|   \\  /    A nd           | Web:      www.OpenFOAM.org                      |
|    \\/     M anipulation  |                                                 |
\*---------------------------------------------------------------------------*/
FoamFile
{
    version     2.0;
    format      ascii;
    class       polyBoundaryMesh;
    location    "constant/polyMesh";
    object      boundary;
}
// * * * * * * * * * * * * * * * * * * * * * * * * * * * * * * * * * * * * * //

4
(
    inlet
    {
        type            patch;
        nFaces          10;
        startFace       52430;
    }
    outlet
    {
        type            patch;
        nFaces          10;
        startFace       52440;
    }
    sides
    {
        type            empty;
        inGroups        1(empty);
        nFaces          55200;
        startFace       52450;
    }
    walls
    {
        type            wall;
        inGroups        1(wall);
        nFaces          5520;
        startFace       107650;
    }
)

// ************************************************************************* //
