/*--------------------------------*- C++ -*----------------------------------*\
| =========                 |                                                 |
| \\      /  F ield         | OpenFOAM: The Open Source CFD Toolbox           |
|  \\    /   O peration     | Version:  3.0.x                                 |
|   \\  /    A nd           | Web:      www.OpenFOAM.org                      |
|    \\/     M anipulation  |                                                 |
\*---------------------------------------------------------------------------*/
FoamFile
{
    version     2.0;
    format      ascii;
    class       polyBoundaryMesh;
    location    "constant/polyMesh";
    object      boundary;
}
// * * * * * * * * * * * * * * * * * * * * * * * * * * * * * * * * * * * * * //

4
(
    inlet
    {
        type            patch;
        nFaces          6;
        startFace       15174;
    }
    outlet
    {
        type            patch;
        nFaces          6;
        startFace       15180;
    }
    sides
    {
        type            empty;
        inGroups        1(empty);
        nFaces          16560;
        startFace       15186;
    }
    walls
    {
        type            wall;
        inGroups        1(wall);
        nFaces          2760;
        startFace       31746;
    }
)

// ************************************************************************* //
